6
h2nnh2.log	Energy:  -70206.4335891
N          0.00000        0.71190       -0.07315
N          0.00000       -0.71190       -0.07315
H         -0.23540        1.09750        0.83272
H          0.23540       -1.09750        0.83272
H          0.92685        1.02468       -0.32067
H         -0.92685       -1.02468       -0.32067
