15
A.log	Energy: -293255.4033474
N          1.65796       -1.12615        0.00000
N         -0.64336       -1.79846        0.00000
N         -0.63214        1.77004        0.00000
N         -2.13879        0.12248        0.00000
N          2.34554        1.07972        0.00000
C         -1.89701        1.47148        0.00000
C         -0.91671       -0.49455        0.00000
C          1.35246        0.17208        0.00000
C          0.66266       -2.01765        0.00000
C          0.00000        0.54346        0.00000
H         -3.03137       -0.33557        0.00000
H          3.29617        0.76358        0.00000
H          2.13359        2.05860        0.00000
H          0.97181       -3.05610        0.00000
H         -2.70309        2.18730        0.00000
