16
Ap.log	Energy: -293454.0072210
N          1.96792        0.42146       -0.08143
N          0.07500        1.91315       -0.02315
N         -1.26063       -1.41551        0.17167
N         -1.96698        0.69711       -0.20581
N          1.66406       -1.84831       -0.23612
C         -2.24275       -0.68257       -0.16920
C         -0.67697        0.86301        0.09134
C          1.19608       -0.65903        0.01024
C          1.39237        1.61208        0.00615
C         -0.20324       -0.48822        0.50069
H         -2.59119        1.42379       -0.52269
H          2.63489       -1.95856       -0.49218
H          1.06466       -2.65852       -0.19029
H          2.06496        2.46127        0.02494
H         -3.22693       -1.04346       -0.43084
H         -0.09472       -0.47145        1.59958
