9
arg.log	Energy: -128883.6391914
N         -1.08269       -0.72879        0.00000
H         -2.00637       -0.34693        0.00000
C          0.00000        0.11976        0.00000
N          1.21122       -0.51703        0.00000
N         -0.03683        1.39732        0.00000
H          1.30573       -1.51110        0.00000
H          2.03041        0.05719        0.00000
H         -0.98720        1.74581        0.00000
H         -0.98452       -1.72410        0.00000
