10
argp.log	Energy: -129134.5807922
N         -1.27081       -0.38512        0.00000
H         -1.52324       -1.35697       -0.00008
C          0.00000       -0.00000        0.00001
N          0.30188        1.29310        0.00000
N          0.96892       -0.90799        0.00000
H         -0.41355        1.99765       -0.00015
H          1.25533        1.60802        0.00001
H          0.76494       -1.89115        0.00013
H          1.93679       -0.64065       -0.00003
H         -2.02025        0.28314        0.00005
