12
c6h6.log	Energy: -145735.2122435
C          0.00000        0.00000        1.38714
C          0.00000        1.20140        0.69359
C          0.00000        1.20140       -0.69359
C          0.00000        0.00000       -1.38714
C          0.00000       -1.20140       -0.69359
C          0.00000       -1.20140        0.69359
H          0.00000        0.00000        2.46875
H          0.00000        2.13806        1.23448
H          0.00000        2.13806       -1.23448
H          0.00000        0.00000       -2.46875
H          0.00000       -2.13806       -1.23448
H          0.00000       -2.13806        1.23448
