14
Cp.log	Energy: -248076.2955376
O         -2.27614        1.02684        0.00000
N          0.00000        0.95875        0.00000
N          2.30382        0.96509        0.00000
N         -1.23558       -1.00866        0.00000
C          1.16920        0.28907        0.00000
C          1.12429       -1.12441        0.00000
C         -1.27911        0.37742        0.00000
C         -0.09125       -1.72027        0.00000
H          2.03111       -1.70493        0.00000
H         -0.19935       -2.79541        0.00000
H          3.18217        0.47602        0.00000
H          2.33704        1.97049        0.00000
H         -2.13465       -1.46721        0.00000
H         -0.02370        1.96935        0.00000
