7
d24.log	Energy: -153753.8058285
C          1.62205        0.13833        0.00000
O          0.35188       -0.51106        0.00002
N         -0.66664        0.43339        0.00001
O         -1.71551       -0.07695       -0.00003
H          1.74282        0.75042       -0.89280
H          2.35754       -0.66031       -0.00010
H          1.74291        0.75027        0.89289
