16
G.log	Energy: -340473.7195559
N         -1.72516       -1.49179       -0.00284
C         -2.70019       -0.52255        0.00141
N         -2.21361        0.67941        0.00683
C         -0.84931        0.50099        0.00624
C          0.21714        1.46110        0.00222
O          0.19912        2.66820       -0.00159
N          1.46917        0.78253       -0.00484
C          1.66021       -0.56644       -0.00411
N          2.95492       -1.00376       -0.06052
N          0.68967       -1.43137        0.00529
C         -0.52999       -0.84246       -0.00053
H         -1.85125       -2.48717       -0.00846
H          3.67160       -0.42432        0.33809
H          3.05988       -1.98904        0.10723
H         -3.74778       -0.77493        0.00026
H          2.26254        1.40082       -0.06320
