6
glyoxal.log	Energy: -142967.0380004
C         -0.32731        0.68849        0.00000
C          0.32731       -0.68849        0.00000
H         -1.43203        0.68031        0.00000
H          1.43203       -0.68031        0.00000
O          0.32731        1.69059        0.00000
O         -0.32731       -1.69059        0.00000
