9
h2cchch3.log	Energy:  -73989.5614008
C          1.22812        0.16189        0.00000
H          1.79713       -0.15395       -0.87673
H          1.17369        1.25018       -0.00002
H          1.79711       -0.15391        0.87675
C         -0.13427       -0.45297        0.00001
H         -0.16865       -1.53823        0.00002
C         -1.27386        0.22059       -0.00001
H         -2.22974       -0.28551       -0.00000
H         -1.28948        1.30433       -0.00002
