7
h2nch3.log	Energy:  -60157.6819653
C          0.04899        0.70330        0.00000
N          0.04899       -0.75452        0.00000
H         -0.94554        1.16490        0.00000
H          0.58678        1.06275        0.87702
H          0.58678        1.06275       -0.87702
H         -0.43245       -1.11430       -0.81175
H         -0.43245       -1.11430        0.81175
