8
h2noch3.log	Energy: -107325.8791880
N          1.13590       -0.30439        0.00002
H          1.67711       -0.02622        0.81198
H          1.67714       -0.02626       -0.81194
O          0.01555        0.56860       -0.00003
C         -1.16482       -0.20180        0.00001
H         -1.22673       -0.83321        0.88998
H         -1.98760        0.51173       -0.00002
H         -1.22674       -0.83328       -0.88991
