8
h3ccooh.log	Energy: -143767.2472595
C          0.00000        0.15363        0.00000
O          0.19700        1.33753        0.00000
O         -1.24158       -0.36984        0.00000
H         -1.85777        0.37142        0.00000
C          1.05228       -0.91402        0.00000
H          0.93260       -1.54713        0.87822
H          0.93260       -1.54713       -0.87822
H          2.03554       -0.45630        0.00000
