8
h3cch3.log	Energy:  -50096.0958849
C          0.00000        0.76156        0.00000
C          0.00000       -0.76156        0.00000
H          1.01602        1.15706        0.00000
H         -1.01602       -1.15706        0.00000
H          0.50799       -1.15708        0.87990
H          0.50799       -1.15708       -0.87990
H         -0.50799        1.15708        0.87990
H         -0.50799        1.15708       -0.87990
