9
h3cconh2.log	Energy: -131296.5811669
C         -1.35533       -0.34843        0.00000
C          0.07437        0.14443       -0.00001
N          1.03557       -0.81816        0.00000
O          0.34770        1.32539       -0.00000
H         -1.85684        0.05360       -0.87840
H         -1.44543       -1.43332       -0.00007
H         -1.85678        0.05348        0.87849
H          1.99744       -0.53106        0.00001
H          0.81678       -1.79472        0.00001
