11
h3cch2ch3.log	Energy:  -74767.2660412
C          0.00000        1.26743       -0.25922
H         -0.88055        1.30635       -0.90326
H          0.88055        1.30635       -0.90326
H          0.00000        2.16377        0.36132
C          0.00000        0.00000        0.58622
H          0.87367        0.00000        1.24185
H         -0.87367        0.00000        1.24185
C          0.00000       -1.26743       -0.25922
H          0.88055       -1.30635       -0.90326
H          0.00000       -2.16377        0.36132
H         -0.88055       -1.30635       -0.90326
