7
h3cno2.log	Energy: -153758.9123675
C          0.03909       -1.31556        0.00000
N          0.00000        0.17255        0.00000
H         -0.48995       -1.64978        0.88737
H         -0.48995       -1.64978       -0.88737
H          1.07454       -1.63213        0.00000
O          1.05583        0.76555        0.00000
O         -1.09698        0.68660        0.00000
