6
hconh2.log	Energy: -106619.6495842
C         -0.16167        0.38595        0.00000
N          1.07855       -0.15711        0.00000
O         -1.18936       -0.24590       -0.00000
H          1.17871       -1.15676        0.00000
H          1.89810        0.41903        0.00001
H         -0.14175        1.48900        0.00000
