9
his.log	Energy: -141957.2225221
C          1.11207        0.29617        0.00000
N          0.00000        1.09798        0.00000
C          0.63280       -0.97889        0.00000
H         -0.01062        2.10029        0.00000
C         -1.08343        0.28188        0.00000
N         -0.73866       -0.97735        0.00000
H          1.19483       -1.89689        0.00000
H         -2.09179        0.66122        0.00000
H          2.10950        0.69594        0.00000
