10
hn_ch3_2.log	Energy:  -84822.7414594
N          0.02658        0.57976        0.00000
C          0.02658       -0.22130        1.20795
C          0.02658       -0.22130       -1.20795
H         -0.80022       -0.94636        1.25787
H         -0.80022       -0.94636       -1.25787
H          0.96102       -0.78226        1.26956
H         -0.02936        0.42624        2.08219
H         -0.02936        0.42624       -2.08219
H          0.96102       -0.78226       -1.26956
H         -0.76790        1.20203        0.00000
