8
lysp.log	Energy:  -60383.4768128
N          0.70669        0.00000       -0.00000
H          1.07788        0.80611       -0.50311
H          1.07786        0.03266        0.94966
H          1.07785       -0.83878       -0.44654
C         -0.79499        0.00000        0.00000
H         -1.13683       -0.03534       -1.02924
H         -1.13681       -0.87368        0.54523
H         -1.13683        0.90902        0.48401
