13
n_ch3_3.log	Energy: -109489.9287249
N         -0.37474        0.00001        0.00000
C          0.06044        1.37977        0.00000
C          0.06044       -0.68988        1.19491
C          0.06044       -0.68988       -1.19491
H          1.16040        1.47655        0.00000
H          1.16040       -0.73828        1.27869
H          1.16040       -0.73828       -1.27869
H         -0.32435        1.89036       -0.88294
H         -0.32435        1.89036        0.88294
H         -0.32432       -0.18057        2.07860
H         -0.32432       -1.70984        1.19565
H         -0.32432       -1.70984       -1.19565
H         -0.32432       -0.18057       -2.07860
