7
nglu.log	Energy: -143410.0481111
C          0.20823        0.00000       -0.00975
O          0.74946        1.12646        0.00182
O          0.74953       -1.12642        0.00182
C         -1.34605       -0.00004       -0.00497
H         -1.68748        0.00022        1.03418
H         -1.73878        0.89609       -0.48772
H         -1.73876       -0.89640       -0.48730
