7
oxirane.log	Energy:  -96510.3337236
O          0.00000        0.00000        0.84566
C          0.00000        0.72957       -0.36810
C          0.00000       -0.72957       -0.36810
H          0.91830        1.26312       -0.58701
H         -0.91830        1.26312       -0.58701
H          0.91830       -1.26312       -0.58701
H         -0.91830       -1.26312       -0.58701
