11
P20.log	Energy: -121748.4273018
C         -0.38940        0.34717        0.00000
C          0.27132        1.54279        0.64131
C          0.27132        1.54279       -0.64131
C          0.27132       -0.97616        0.00000
C         -0.36917       -2.13708        0.00000
H         -1.47749        0.29681        0.00000
H          0.53763        2.00390        1.57412
H          0.53763        2.00390       -1.57412
H          1.35792       -0.96121        0.00000
H         -1.45197       -2.18290        0.00000
H          0.16389       -3.07755        0.00000
