7
p2p.log	Energy:  -49487.4952753
C          0.00000        0.68673       -0.06394
C          0.00000       -0.68673       -0.06394
H          0.93346        1.24032       -0.07317
H         -0.93346        1.24032       -0.07317
H          0.00000        0.00000        1.06000
H          0.93346       -1.24032       -0.07317
H         -0.93346       -1.24032       -0.07317
