14
P44.log	Energy: -146442.9566119
C         -0.03989       -0.00983        0.43348
C          1.05674        1.04858        0.05198
C          1.02659       -1.03866        0.09558
C          1.95054       -0.13650       -0.22311
C         -1.26476       -0.01511       -0.41578
C         -2.50769       -0.01518        0.04136
H         -0.31082        0.02014        1.49077
H          1.35899        1.69966        0.87310
H          0.80181        1.66416       -0.81168
H          1.00743       -2.11988        0.11301
H          2.97718       -0.20931       -0.55451
H         -1.08946       -0.02409       -1.48866
H         -3.35735       -0.02056       -0.62783
H         -2.71694       -0.00989        1.10466
