17
P51.log	Energy: -171144.3544104
C          0.84420       -1.28308        0.00000
C         -0.65618       -1.21832        0.00000
C          1.25391        0.17922        0.00000
C         -1.12200        0.02495        0.00000
C          0.00000        1.03085        0.00000
C          2.49673        0.63314        0.00000
H          1.23461       -1.80827        0.87597
H          1.23461       -1.80827       -0.87597
H         -1.27990       -2.10254        0.00000
H          3.34415       -0.04052        0.00000
H          2.71151        1.69418        0.00000
H         -0.04770        1.68497       -0.87593
H         -0.04770        1.68497        0.87593
C         -2.54819        0.45778        0.00000
H         -2.76731        1.07145       -0.87706
H         -3.22572       -0.39475        0.00000
H         -2.76731        1.07145        0.87706
