17
P60.log	Energy: -171140.3974210
C          0.27826        0.71433       -1.22164
C         -0.27826       -0.71433       -1.22164
C          0.00000        0.00000        1.10207
C          0.00000        1.20165        0.17944
C          0.00000       -1.20165        0.17944
C         -0.25437        2.45106        0.53308
C          0.25437       -2.45106        0.53308
H         -0.15453        1.35807       -1.98507
H          1.35955        0.68195       -1.38509
H          0.15453       -1.35807       -1.98507
H         -1.35955       -0.68195       -1.38509
H         -0.87719        0.00487        1.75158
H          0.87719       -0.00487        1.75158
H         -0.25807        3.25260       -0.19427
H         -0.46543        2.71611        1.56136
H          0.25807       -3.25260       -0.19427
H          0.46543       -2.71611        1.56136
