16
pro.log	Energy: -204537.6033719
C         -1.71253        0.47571       -0.01401
O         -2.57559       -0.37072        0.09349
N         -0.39358        0.22153       -0.07221
C          0.14045       -1.13240        0.02956
C          1.64180       -0.93735       -0.18200
C          1.89105        0.48923        0.31220
C          0.64983        1.23488       -0.16959
H         -0.32109       -1.78361       -0.71113
H          2.23322       -1.68199        0.34564
H          1.88247       -1.00937       -1.24374
H          1.93352        0.50748        1.40224
H          2.81191        0.92314       -0.07114
H          0.40884        2.10428        0.44081
H          0.77659        1.56698       -1.20435
H         -0.08504       -1.54573        1.01513
H         -1.94419        1.55344       -0.07278
