11
pyridine.log	Energy: -155797.9166430
C         -1.13561       -0.71754       -0.00021
C         -1.19008        0.66798       -0.00012
C         -0.00000        1.37542        0.00009
C          1.19008        0.66798        0.00021
C          1.13561       -0.71754        0.00011
N          0.00000       -1.40902       -0.00009
H         -0.00000        2.45702        0.00016
H         -2.04922       -1.30072       -0.00037
H         -2.14459        1.17486       -0.00022
H          2.14459        1.17486        0.00037
H          2.04922       -1.30071        0.00019
