17
R51.log	Energy: -171145.3176343
C         -0.73489        1.24121       -0.11369
C          0.57105        1.26775        0.13927
C         -1.25987       -0.12171       -0.03749
C          1.13428       -0.09718        0.43659
C         -0.06499       -1.03277        0.15816
C         -2.53646       -0.48260       -0.11877
H         -1.35392        2.10085       -0.32934
H          1.18431        2.15915        0.15598
H         -3.31666        0.25188       -0.26891
H         -2.83889       -1.51816       -0.03694
H          0.11338       -1.59862       -0.75906
H         -0.22883       -1.75618        0.95539
C          2.38177       -0.43198       -0.37486
H          2.16627       -0.38747       -1.44394
H          3.19070        0.26875       -0.16382
H          2.73863       -1.43615       -0.14267
H          1.39962       -0.14025        1.49803
