17
R60.log	Energy: -171148.8809926
C          0.66580        1.27154        0.00001
C         -0.87524        1.24583        0.00001
C         -0.00095       -0.97953       -0.00000
C          1.06702       -0.18043        0.00000
C         -1.24963       -0.22568       -0.00000
C          2.49974       -0.58486       -0.00000
C         -2.48121       -0.72754       -0.00001
H          1.07441        1.78493        0.87422
H          1.07441        1.78493       -0.87421
H         -1.28694        1.74601       -0.87593
H         -1.28694        1.74600        0.87595
H          3.01360       -0.18301        0.87663
H          2.61391       -1.66754        0.00002
H         -3.35333       -0.08718       -0.00001
H         -2.65037       -1.79617       -0.00001
H          3.01359       -0.18304       -0.87666
H          0.03453       -2.06089       -0.00001
