15
T.log	Energy: -284992.0316670
N          0.15568       -1.65603        0.00000
N          1.19372        0.39175        0.00000
C         -1.21269        0.29477        0.00000
C          0.00000        1.11440        0.00000
C         -1.07034       -1.03710        0.00000
C          1.35352       -0.97571        0.00000
C         -2.53222        0.99430        0.00000
O          0.01876        2.32481        0.00000
O          2.42843       -1.52717        0.00000
H          0.22957       -2.65733        0.00000
H          2.04467        0.93231        0.00000
H         -1.92040       -1.70493        0.00000
H         -2.62648        1.63760        0.87487
H         -2.62648        1.63760       -0.87487
H         -3.35377        0.27963        0.00000
