16
Tp.log	Energy: -285206.8407410
N          0.13815       -1.69891        0.00000
N          1.18053        0.36448        0.00000
C         -1.20422        0.27098        0.00000
C          0.00000        0.99831        0.00000
C         -1.06118       -1.08471        0.00000
C          1.35205       -1.03479        0.00000
C         -2.52975        0.96983        0.00000
O         -0.05919        2.29905        0.00000
O          2.42382       -1.54985        0.00000
H          0.20091       -2.70695        0.00000
H          2.05534        0.87370        0.00000
H         -1.92228       -1.73889        0.00000
H         -2.63766        1.60227        0.88001
H         -2.63766        1.60227       -0.88001
H         -3.33882        0.24376        0.00000
H          0.79089        2.75344        0.00000
