10
trp.log	Energy: -131886.5285202
C         -0.32960        1.11709       -0.00005
C          0.97690        0.70941       -0.00008
C          0.97690       -0.70941        0.00000
C         -0.32960       -1.11709        0.00008
N         -1.11485        0.00000        0.00004
H         -2.11612        0.00000        0.00009
H         -0.76110        2.10235       -0.00009
H          1.83733        1.35598       -0.00015
H          1.83733       -1.35598        0.00000
H         -0.76110       -2.10235        0.00015
